src/test/resources/com/rte_france/trm_algorithm/operational_conditions_aligners/injection_shape/reference.uct
##C 2007.05.01
##N
##ZFR
F000011  FR1          0 2 400.00   20.00 0.00000  -110.0 0.00000 9000.00 -9000.0 9000.00 -9000.0
F000012  FR2          0 2 400.00   20.00 0.00000   -10.0 0.00000 9000.00 -9000.0 9000.00 -9000.0
F000013  FR3          0 0 400.00   10.00 0.00000  0.0000 0.00000
##ZES
E000011  ES1          0 0 400.00  140.00 0.00000  0.0000 0.00000
E000012  ES2          0 2 400.00   10.00 0.00000   -50.0 0.00000 9000.00 -9000.0 9000.00 -9000.0
E000013  ES3          0 2 400.00 0000.00 0.00000   -10.0 0.00000 9000.00 -9000.0 9000.00 -9000.0
##L
F000011  E000011  1 0 0.0000 10.000 0.000000   5000